Version 4
SHEET 1 1236 936
WIRE 992 -272 -32 -272
WIRE 1152 -272 1056 -272
WIRE 992 -256 48 -256
WIRE 1152 -256 1152 -272
WIRE 992 -240 80 -240
WIRE 16 -112 0 -112
WIRE 992 -112 16 -112
WIRE 1056 -112 1056 -128
WIRE 48 -96 48 -256
WIRE 992 -96 48 -96
WIRE 80 -80 80 -240
WIRE 992 -80 80 -80
WIRE -192 0 -272 0
WIRE -32 0 -32 -272
WIRE -32 0 -96 0
WIRE -192 32 -192 0
WIRE 0 32 0 -112
WIRE 0 32 -192 32
WIRE -32 48 -32 0
WIRE 992 48 -32 48
WIRE 1136 48 1056 48
WIRE 992 64 352 64
WIRE 80 80 80 -80
WIRE 992 80 80 80
WIRE -192 128 -272 128
WIRE 48 128 48 -96
WIRE 48 128 -96 128
WIRE -192 160 -192 128
WIRE 352 160 352 64
WIRE 352 160 -192 160
WIRE 16 208 16 -112
WIRE 992 208 16 208
WIRE 1056 208 1040 208
WIRE 352 224 352 160
WIRE 992 224 352 224
WIRE 80 240 80 80
WIRE 992 240 80 240
WIRE -192 272 -272 272
WIRE 80 272 80 240
WIRE 80 272 -96 272
WIRE -192 320 -192 272
WIRE 304 320 -192 320
WIRE 992 336 944 336
WIRE 992 352 960 352
WIRE -32 368 -32 48
WIRE 944 368 944 336
WIRE 944 368 -32 368
WIRE 992 368 976 368
WIRE 48 384 48 128
WIRE 960 384 960 352
WIRE 960 384 48 384
WIRE 304 400 304 320
WIRE 976 400 976 368
WIRE 976 400 304 400
WIRE 992 480 912 480
WIRE 1232 480 1056 480
WIRE 992 496 928 496
WIRE 992 512 944 512
WIRE 48 528 48 384
WIRE 912 528 912 480
WIRE 912 528 48 528
WIRE 16 544 16 208
WIRE 928 544 928 496
WIRE 928 544 16 544
WIRE 304 560 304 400
WIRE 944 560 944 512
WIRE 944 560 304 560
WIRE 992 656 896 656
WIRE 1200 656 1056 656
WIRE 992 672 912 672
WIRE 352 688 352 224
WIRE 896 688 896 656
WIRE 896 688 352 688
WIRE 992 688 944 688
WIRE -32 704 -32 368
WIRE 912 704 912 672
WIRE 912 704 -32 704
WIRE 304 720 304 560
WIRE 944 720 944 688
WIRE 944 720 304 720
WIRE 976 816 896 816
WIRE 1168 816 1040 816
WIRE 976 832 912 832
WIRE 16 848 16 544
WIRE 896 848 896 816
WIRE 896 848 16 848
WIRE 976 848 928 848
WIRE 352 864 352 688
WIRE 912 864 912 832
WIRE 912 864 352 864
WIRE 304 880 304 720
WIRE 928 880 928 848
WIRE 928 880 304 880
FLAG -272 208 0
FLAG -272 352 0
FLAG -272 80 0
SYMBOL Not -192 0 R0
SYMATTR InstName X2
SYMBOL Not -192 128 R0
SYMATTR InstName X3
SYMBOL Not -192 272 R0
SYMATTR InstName X4
SYMBOL voltage -272 -16 R0
WINDOW 123 0 0 Left 0
WINDOW 39 0 0 Left 0
SYMATTR InstName V1
SYMATTR Value PULSE(0 5 0 10p 10p 4n 8n)
SYMBOL voltage -272 112 R0
WINDOW 123 0 0 Left 0
WINDOW 39 0 0 Left 0
SYMATTR InstName V2
SYMATTR Value PULSE(0 5 0 10p 10p 2n 4n)
SYMBOL voltage -272 256 R0
WINDOW 123 0 0 Left 0
WINDOW 39 0 0 Left 0
SYMATTR InstName V3
SYMATTR Value PULSE(0 5 0 1p 1p 8n 16n)
SYMBOL Digital\\and 1024 -320 R0
SYMATTR InstName A1
SYMBOL Digital\\and 1024 -160 R0
SYMATTR InstName A2
SYMBOL Digital\\and 1024 0 R0
SYMATTR InstName A3
SYMBOL Digital\\and 1024 160 R0
SYMATTR InstName A4
SYMBOL Digital\\and 1024 288 R0
SYMATTR InstName A5
SYMBOL Digital\\and 1024 432 R0
SYMATTR InstName A6
SYMBOL Digital\\and 1024 608 R0
SYMATTR InstName A7
SYMBOL Digital\\and 1008 768 R0
SYMATTR InstName A8
TEXT -272 920 Left 2 !.tran 8n
