Version 4
SHEET 1 880 776
WIRE 144 32 -96 32
WIRE 480 48 416 48
WIRE 144 80 -80 80
WIRE 480 144 480 48
WIRE 480 144 80 144
WIRE 80 240 80 144
WIRE 160 240 80 240
WIRE 480 256 432 256
WIRE 80 288 80 240
WIRE 160 288 80 288
WIRE 480 352 480 256
WIRE 480 352 80 352
WIRE 80 464 80 352
WIRE 160 464 80 464
WIRE 480 480 432 480
WIRE 160 512 -96 512
WIRE 480 576 480 480
WIRE 480 576 80 576
WIRE 80 688 80 576
WIRE 176 688 80 688
WIRE 688 704 448 704
WIRE 80 736 80 688
WIRE 176 736 80 736
FLAG -96 32 A
IOPIN -96 32 In
FLAG -80 80 B
IOPIN -80 80 In
FLAG -96 512 C
IOPIN -96 512 In
FLAG 688 704 AND
IOPIN 688 704 Out
SYMBOL Nand 208 64 R0
SYMATTR InstName X1
SYMBOL Nand 224 272 R0
SYMATTR InstName X2
SYMBOL Nand 224 496 R0
SYMATTR InstName X3
SYMBOL Nand 240 720 R0
SYMATTR InstName X4
